data/case30.raw
 0,    100.00, 33, 0, 0, 60.00 
tests a seminal dataset

    1,'1           ', 132.0000,3,   1,   1,   1,1.05999994,   0.000000, 1.06000, 0.94000, 1.10000, 0.90000
    2,'2           ', 132.0000,2,   1,   1,   1,1.03591001,  -4.111490, 1.06000, 0.94000, 1.10000, 0.90000
    3,'3           ', 132.0000,1,   1,   1,   1,1.01502001,  -6.853720, 1.06000, 0.94000, 1.10000, 0.90000
    4,'4           ', 132.0000,1,   1,   1,   1,1.00445998,  -8.445740, 1.06000, 0.94000, 1.10000, 0.90000
    5,'5           ', 132.0000,2,   1,   1,   1,0.99747998, -13.132190, 1.06000, 0.94000, 1.10000, 0.90000
    6,'6           ', 132.0000,1,   1,   1,   1,1.00170004, -10.156710, 1.06000, 0.94000, 1.10000, 0.90000
    7,'7           ', 132.0000,1,   1,   1,   1,0.99207997, -11.917060, 1.06000, 0.94000, 1.10000, 0.90000
    8,'8           ', 132.0000,2,   1,   1,   1,1.00241005, -10.934610, 1.06000, 0.94000, 1.10000, 0.90000
    9,'9           ',   1.0000,1,   1,   1,   1,1.03671002, -13.266150, 1.06000, 0.94000, 1.10000, 0.90000
   10,'10          ',  33.0000,1,   1,   1,   1,1.03219998, -14.897300, 1.06000, 0.94000, 1.10000, 0.90000
   11,'11          ',  11.0000,2,   1,   1,   1,1.05999994, -13.266150, 1.06000, 0.94000, 1.10000, 0.90000
   12,'12          ',  33.0000,1,   1,   1,   1,1.04624999, -14.188780, 1.06000, 0.94000, 1.10000, 0.90000
   13,'13          ',  11.0000,2,   1,   1,   1,1.05999994, -14.188780, 1.06000, 0.94000, 1.10000, 0.90000
   14,'14          ',  33.0000,1,   1,   1,   1,1.03103006, -15.094570, 1.06000, 0.94000, 1.10000, 0.90000
   15,'15          ',  33.0000,1,   1,   1,   1,1.02620995, -15.178340, 1.06000, 0.94000, 1.10000, 0.90000
   16,'16          ',  33.0000,1,   1,   1,   1,1.03259003, -14.753200, 1.06000, 0.94000, 1.10000, 0.90000
   17,'17          ',  33.0000,1,   1,   1,   1,1.02725995, -15.074750, 1.06000, 0.94000, 1.10000, 0.90000
   18,'18          ',  33.0000,1,   1,   1,   1,1.01602006, -15.790320, 1.06000, 0.94000, 1.10000, 0.90000
   19,'19          ',  33.0000,1,   1,   1,   1,1.01317000, -15.958310, 1.06000, 0.94000, 1.10000, 0.90000
   20,'20          ',  33.0000,1,   1,   1,   1,1.01714003, -15.751530, 1.06000, 0.94000, 1.10000, 0.90000
   21,'21          ',  33.0000,1,   1,   1,   1,1.01981997, -15.352689, 1.06000, 0.94000, 1.10000, 0.90000
   22,'22          ',  33.0000,1,   1,   1,   1,1.02040994, -15.338600, 1.06000, 0.94000, 1.10000, 0.90000
   23,'23          ',  33.0000,1,   1,   1,   1,1.01531994, -15.564000, 1.06000, 0.94000, 1.10000, 0.90000
   24,'24          ',  33.0000,1,   1,   1,   1,1.00929999, -15.725969, 1.06000, 0.94000, 1.10000, 0.90000
   25,'25          ',  33.0000,1,   1,   1,   1,1.00620997, -15.291380, 1.06000, 0.94000, 1.10000, 0.90000
   26,'26          ',  33.0000,1,   1,   1,   1,0.98833001, -15.720531, 1.06000, 0.94000, 1.10000, 0.90000
   27,'27          ',  33.0000,1,   1,   1,   1,1.01294005, -14.756240, 1.06000, 0.94000, 1.10000, 0.90000
   28,'28          ', 132.0000,1,   1,   1,   1,0.99823999, -10.795670, 1.06000, 0.94000, 1.10000, 0.90000
   29,'29          ',  33.0000,1,   1,   1,   1,0.99287999, -16.011820, 1.06000, 0.94000, 1.10000, 0.90000
   30,'30          ',  33.0000,1,   1,   1,   1,0.98128003, -16.913710, 1.06000, 0.94000, 1.10000, 0.90000
0 / END OF BUS DATA, BEGIN LOAD DATA
    2,'1 ',1,   1,   1,    21.700,    12.700,     0.000,     0.000,     0.000,     0.000,   1,1
    3,'1 ',1,   1,   1,     2.400,     1.200,     0.000,     0.000,     0.000,     0.000,   1,1
    4,'1 ',1,   1,   1,     7.600,     1.600,     0.000,     0.000,     0.000,     0.000,   1,1
    5,'1 ',1,   1,   1,    94.200,    19.000,     0.000,     0.000,     0.000,     0.000,   1,1
    7,'1 ',1,   1,   1,    22.800,    10.900,     0.000,     0.000,     0.000,     0.000,   1,1
    8,'1 ',1,   1,   1,    30.000,    30.000,     0.000,     0.000,     0.000,     0.000,   1,1
   10,'1 ',1,   1,   1,     5.800,     2.000,     0.000,     0.000,     0.000,     0.000,   1,1
   12,'1 ',1,   1,   1,    11.200,     7.500,     0.000,     0.000,     0.000,     0.000,   1,1
   14,'1 ',1,   1,   1,     6.200,     1.600,     0.000,     0.000,     0.000,     0.000,   1,1
   15,'1 ',1,   1,   1,     8.200,     2.500,     0.000,     0.000,     0.000,     0.000,   1,1
   16,'1 ',1,   1,   1,     3.500,     1.800,     0.000,     0.000,     0.000,     0.000,   1,1
   17,'1 ',1,   1,   1,     9.000,     5.800,     0.000,     0.000,     0.000,     0.000,   1,1
   18,'1 ',1,   1,   1,     3.200,     0.900,     0.000,     0.000,     0.000,     0.000,   1,1
   19,'1 ',1,   1,   1,     9.500,     3.400,     0.000,     0.000,     0.000,     0.000,   1,1
   20,'1 ',1,   1,   1,     2.200,     0.700,     0.000,     0.000,     0.000,     0.000,   1,1
   21,'1 ',1,   1,   1,    17.500,    11.200,     0.000,     0.000,     0.000,     0.000,   1,1
   23,'1 ',1,   1,   1,     3.200,     1.600,     0.000,     0.000,     0.000,     0.000,   1,1
   24,'1 ',1,   1,   1,     8.700,     6.700,     0.000,     0.000,     0.000,     0.000,   1,1
   26,'1 ',1,   1,   1,     3.500,     2.300,     0.000,     0.000,     0.000,     0.000,   1,1
   29,'1 ',1,   1,   1,     2.400,     0.900,     0.000,     0.000,     0.000,     0.000,   1,1
   30,'1 ',1,   1,   1,    10.600,     1.900,     0.000,     0.000,     0.000,     0.000,   1,1
0 / END OF LOAD DATA, BEGIN FIXED SHUNT DATA
0 / END OF FIXED SHUNT DATA, BEGIN GENERATOR DATA
    1,'1 ',   218.839,     9.372,    10.000,     0.000,1.06000,    0,   100.000,   0.00000,   1.00000,   0.00000,   0.00000,1.00000,1,  100.0,   784.000,     0.000,   1,1.0000,   0,1.0000,   0,1.0000,   0,1.0000,0, 1.0000
    2,'1 ',    80.050,    24.589,    50.000,   -40.000,1.03591,    0,   100.000,   0.00000,   1.00000,   0.00000,   0.00000,1.00000,1,  100.0,   100.000,     0.000,   1,1.0000,   0,1.0000,   0,1.0000,   0,1.0000,0, 1.0000
    5,'1 ',     0.000,    32.487,    40.000,   -40.000,0.99748,    0,   100.000,   0.00000,   1.00000,   0.00000,   0.00000,1.00000,1,  100.0,     0.000,     0.000,   1,1.0000,   0,1.0000,   0,1.0000,   0,1.0000,0, 1.0000
    8,'1 ',     0.000,    40.000,    40.000,   -10.000,1.00241,    0,   100.000,   0.00000,   1.00000,   0.00000,   0.00000,1.00000,1,  100.0,     0.000,     0.000,   1,1.0000,   0,1.0000,   0,1.0000,   0,1.0000,0, 1.0000
   11,'1 ',     0.000,    11.870,    24.000,    -6.000,1.06000,    0,   100.000,   0.00000,   1.00000,   0.00000,   0.00000,1.00000,1,  100.0,     0.000,     0.000,   1,1.0000,   0,1.0000,   0,1.0000,   0,1.0000,0, 1.0000
   13,'1 ',     0.000,    10.414,    24.000,    -6.000,1.06000,    0,   100.000,   0.00000,   1.00000,   0.00000,   0.00000,1.00000,1,  100.0,     0.000,     0.000,   1,1.0000,   0,1.0000,   0,1.0000,   0,1.0000,0, 1.0000
0 / END OF GENERATOR DATA, BEGIN BRANCH DATA
     1,     2,'1 ',1.92000E-2,5.75000E-2,5.28000E-2, 138.00, 138.00, 138.00,  0.00000,  0.00000,  0.00000,  0.00000,1,1,   0.0,   1,1.0000,   0,1.0000,   0,1.0000,   0,1.0000
     1,     3,'1 ',4.52000E-2,1.65200E-1,4.08000E-2, 152.00, 152.00, 152.00,  0.00000,  0.00000,  0.00000,  0.00000,1,1,   0.0,   1,1.0000,   0,1.0000,   0,1.0000,   0,1.0000
     2,     4,'1 ',5.70000E-2,1.73700E-1,3.68000E-2, 139.00, 139.00, 139.00,  0.00000,  0.00000,  0.00000,  0.00000,1,1,   0.0,   1,1.0000,   0,1.0000,   0,1.0000,   0,1.0000
     2,     5,'1 ',4.72000E-2,1.98300E-1,4.18000E-2, 144.00, 144.00, 144.00,  0.00000,  0.00000,  0.00000,  0.00000,1,1,   0.0,   1,1.0000,   0,1.0000,   0,1.0000,   0,1.0000
     2,     6,'1 ',5.81000E-2,1.76300E-1,3.74000E-2, 139.00, 139.00, 139.00,  0.00000,  0.00000,  0.00000,  0.00000,1,1,   0.0,   1,1.0000,   0,1.0000,   0,1.0000,   0,1.0000
     3,     4,'1 ',1.32000E-2,3.79000E-2,8.40000E-3, 135.00, 135.00, 135.00,  0.00000,  0.00000,  0.00000,  0.00000,1,1,   0.0,   1,1.0000,   0,1.0000,   0,1.0000,   0,1.0000
     4,     6,'1 ',1.19000E-2,4.14000E-2,9.00000E-3, 148.00, 148.00, 148.00,  0.00000,  0.00000,  0.00000,  0.00000,1,1,   0.0,   1,1.0000,   0,1.0000,   0,1.0000,   0,1.0000
     5,     7,'1 ',4.60000E-2,1.16000E-1,2.04000E-2, 127.00, 127.00, 127.00,  0.00000,  0.00000,  0.00000,  0.00000,1,1,   0.0,   1,1.0000,   0,1.0000,   0,1.0000,   0,1.0000
     6,     7,'1 ',2.67000E-2,8.20000E-2,1.70000E-2, 140.00, 140.00, 140.00,  0.00000,  0.00000,  0.00000,  0.00000,1,1,   0.0,   1,1.0000,   0,1.0000,   0,1.0000,   0,1.0000
     6,     8,'1 ',1.20000E-2,4.20000E-2,9.00000E-3, 148.00, 148.00, 148.00,  0.00000,  0.00000,  0.00000,  0.00000,1,1,   0.0,   1,1.0000,   0,1.0000,   0,1.0000,   0,1.0000
     6,    28,'1 ',1.69000E-2,5.99000E-2,1.30000E-2, 149.00, 149.00, 149.00,  0.00000,  0.00000,  0.00000,  0.00000,1,1,   0.0,   1,1.0000,   0,1.0000,   0,1.0000,   0,1.0000
     8,    28,'1 ',6.36000E-2,2.00000E-1,4.28000E-2, 140.00, 140.00, 140.00,  0.00000,  0.00000,  0.00000,  0.00000,1,1,   0.0,   1,1.0000,   0,1.0000,   0,1.0000,   0,1.0000
    10,    17,'1 ',3.24000E-2,8.45000E-2,0.00000E0,  33.00,  33.00,  33.00,  0.00000,  0.00000,  0.00000,  0.00000,1,1,   0.0,   1,1.0000,   0,1.0000,   0,1.0000,   0,1.0000
    10,    20,'1 ',9.36000E-2,2.09000E-1,0.00000E0,  30.00,  30.00,  30.00,  0.00000,  0.00000,  0.00000,  0.00000,1,1,   0.0,   1,1.0000,   0,1.0000,   0,1.0000,   0,1.0000
    10,    21,'1 ',3.48000E-2,7.49000E-2,0.00000E0,  30.00,  30.00,  30.00,  0.00000,  0.00000,  0.00000,  0.00000,1,1,   0.0,   1,1.0000,   0,1.0000,   0,1.0000,   0,1.0000
    10,    22,'1 ',7.27000E-2,1.49900E-1,0.00000E0,  29.00,  29.00,  29.00,  0.00000,  0.00000,  0.00000,  0.00000,1,1,   0.0,   1,1.0000,   0,1.0000,   0,1.0000,   0,1.0000
    12,    14,'1 ',1.23100E-1,2.55900E-1,0.00000E0,  29.00,  29.00,  29.00,  0.00000,  0.00000,  0.00000,  0.00000,1,1,   0.0,   1,1.0000,   0,1.0000,   0,1.0000,   0,1.0000
    12,    15,'1 ',6.62000E-2,1.30400E-1,0.00000E0,  29.00,  29.00,  29.00,  0.00000,  0.00000,  0.00000,  0.00000,1,1,   0.0,   1,1.0000,   0,1.0000,   0,1.0000,   0,1.0000
    12,    16,'1 ',9.45000E-2,1.98700E-1,0.00000E0,  30.00,  30.00,  30.00,  0.00000,  0.00000,  0.00000,  0.00000,1,1,   0.0,   1,1.0000,   0,1.0000,   0,1.0000,   0,1.0000
    14,    15,'1 ',2.21000E-1,1.99700E-1,0.00000E0,  20.00,  20.00,  20.00,  0.00000,  0.00000,  0.00000,  0.00000,1,1,   0.0,   1,1.0000,   0,1.0000,   0,1.0000,   0,1.0000
    15,    18,'1 ',1.07300E-1,2.18500E-1,0.00000E0,  29.00,  29.00,  29.00,  0.00000,  0.00000,  0.00000,  0.00000,1,1,   0.0,   1,1.0000,   0,1.0000,   0,1.0000,   0,1.0000
    15,    23,'1 ',1.00000E-1,2.02000E-1,0.00000E0,  29.00,  29.00,  29.00,  0.00000,  0.00000,  0.00000,  0.00000,1,1,   0.0,   1,1.0000,   0,1.0000,   0,1.0000,   0,1.0000
    16,    17,'1 ',5.24000E-2,1.92300E-1,0.00000E0,  38.00,  38.00,  38.00,  0.00000,  0.00000,  0.00000,  0.00000,1,1,   0.0,   1,1.0000,   0,1.0000,   0,1.0000,   0,1.0000
    18,    19,'1 ',6.39000E-2,1.29200E-1,0.00000E0,  29.00,  29.00,  29.00,  0.00000,  0.00000,  0.00000,  0.00000,1,1,   0.0,   1,1.0000,   0,1.0000,   0,1.0000,   0,1.0000
    19,    20,'1 ',3.40000E-2,6.80000E-2,0.00000E0,  29.00,  29.00,  29.00,  0.00000,  0.00000,  0.00000,  0.00000,1,1,   0.0,   1,1.0000,   0,1.0000,   0,1.0000,   0,1.0000
    21,    22,'1 ',1.16000E-2,2.36000E-2,0.00000E0,  29.00,  29.00,  29.00,  0.00000,  0.00000,  0.00000,  0.00000,1,1,   0.0,   1,1.0000,   0,1.0000,   0,1.0000,   0,1.0000
    22,    24,'1 ',1.15000E-1,1.79000E-1,0.00000E0,  26.00,  26.00,  26.00,  0.00000,  0.00000,  0.00000,  0.00000,1,1,   0.0,   1,1.0000,   0,1.0000,   0,1.0000,   0,1.0000
    23,    24,'1 ',1.32000E-1,2.70000E-1,0.00000E0,  29.00,  29.00,  29.00,  0.00000,  0.00000,  0.00000,  0.00000,1,1,   0.0,   1,1.0000,   0,1.0000,   0,1.0000,   0,1.0000
    24,    25,'1 ',1.88500E-1,3.29200E-1,0.00000E0,  27.00,  27.00,  27.00,  0.00000,  0.00000,  0.00000,  0.00000,1,1,   0.0,   1,1.0000,   0,1.0000,   0,1.0000,   0,1.0000
    25,    26,'1 ',2.54400E-1,3.80000E-1,0.00000E0,  25.00,  25.00,  25.00,  0.00000,  0.00000,  0.00000,  0.00000,1,1,   0.0,   1,1.0000,   0,1.0000,   0,1.0000,   0,1.0000
    25,    27,'1 ',1.09300E-1,2.08700E-1,0.00000E0,  28.00,  28.00,  28.00,  0.00000,  0.00000,  0.00000,  0.00000,1,1,   0.0,   1,1.0000,   0,1.0000,   0,1.0000,   0,1.0000
    27,    29,'1 ',2.19800E-1,4.15300E-1,0.00000E0,  28.00,  28.00,  28.00,  0.00000,  0.00000,  0.00000,  0.00000,1,1,   0.0,   1,1.0000,   0,1.0000,   0,1.0000,   0,1.0000
    27,    30,'1 ',3.20200E-1,6.02700E-1,0.00000E0,  28.00,  28.00,  28.00,  0.00000,  0.00000,  0.00000,  0.00000,1,1,   0.0,   1,1.0000,   0,1.0000,   0,1.0000,   0,1.0000
    29,    30,'1 ',2.39900E-1,4.53300E-1,0.00000E0,  28.00,  28.00,  28.00,  0.00000,  0.00000,  0.00000,  0.00000,1,1,   0.0,   1,1.0000,   0,1.0000,   0,1.0000,   0,1.0000
0 / END OF BRANCH DATA, BEGIN TRANSFORMER DATA
     4,    12,    0,'1 ',1,1,1,0.00000E0,0.00000E0,2,'            ',1,   1,1.0000,   0,1.0000,   0,1.0000,   0,1.0000,'            '
1.00000E-7,2.56000E-1, 100.00
0.932000,132.000,   0.000, 115.00, 115.00, 115.00,-1,     0,1.500000,0.510000,1.500000,0.510000,159, 0, 0.00000, 0.00000,  0.000
1.000000, 33.000
     6,     9,    0,'1 ',1,1,1,0.00000E0,0.00000E0,2,'            ',1,   1,1.0000,   0,1.0000,   0,1.0000,   0,1.0000,'            '
1.00000E-7,2.08000E-1, 100.00
0.978000,132.000,   0.000, 142.00, 142.00, 142.00,-1,     0,1.500000,0.510000,1.500000,0.510000,159, 0, 0.00000, 0.00000,  0.000
1.000000,  1.000
     6,    10,    0,'1 ',1,1,1,0.00000E0,0.00000E0,2,'            ',1,   1,1.0000,   0,1.0000,   0,1.0000,   0,1.0000,'            '
1.00000E-7,5.56000E-1, 100.00
0.969000,132.000,   0.000,  53.00,  53.00,  53.00,-1,     0,1.500000,0.510000,1.500000,0.510000,159, 0, 0.00000, 0.00000,  0.000
1.000000, 33.000
     9,    10,    0,'1 ',1,1,1,0.00000E0,0.00000E0,2,'            ',1,   1,1.0000,   0,1.0000,   0,1.0000,   0,1.0000,'            '
1.00000E-7,1.10000E-1, 100.00
1.000000,  1.000,   0.000, 267.00, 267.00, 267.00,0,     0,1.500000,0.510000,1.500000,0.510000,159, 0, 0.00000, 0.00000,  0.000
1.000000, 33.000
     9,    11,    0,'1 ',1,1,1,0.00000E0,0.00000E0,2,'            ',1,   1,1.0000,   0,1.0000,   0,1.0000,   0,1.0000,'            '
1.00000E-7,2.08000E-1, 100.00
1.000000,  1.000,   0.000, 142.00, 142.00, 142.00,0,     0,1.500000,0.510000,1.500000,0.510000,159, 0, 0.00000, 0.00000,  0.000
1.000000, 11.000
    12,    13,    0,'1 ',1,1,1,0.00000E0,0.00000E0,2,'            ',1,   1,1.0000,   0,1.0000,   0,1.0000,   0,1.0000,'            '
1.00000E-7,1.40000E-1, 100.00
1.000000, 33.000,   0.000, 210.00, 210.00, 210.00,0,     0,1.500000,0.510000,1.500000,0.510000,159, 0, 0.00000, 0.00000,  0.000
1.000000, 11.000
    28,    27,    0,'1 ',1,1,1,0.00000E0,0.00000E0,2,'            ',1,   1,1.0000,   0,1.0000,   0,1.0000,   0,1.0000,'            '
1.00000E-7,3.96000E-1, 100.00
0.968000,132.000,   0.000,  75.00,  75.00,  75.00,-1,     0,1.500000,0.510000,1.500000,0.510000,159, 0, 0.00000, 0.00000,  0.000
1.000000, 33.000
0 / END OF TRANSFORMER DATA, BEGIN AREA DATA
   1,    0,     0.000,     1.000,'1           '
0 / END OF AREA DATA, BEGIN TWO-TERMINAL DC DATA
0 / END OF TWO-TERMINAL DC DATA, BEGIN VOLTAGE SOURCE CONVERTER DATA
0 / END OF VOLTAGE SOURCE CONVERTER DATA, BEGIN IMPEDANCE CORRECTION DATA
0 / END OF IMPEDANCE CORRECTION DATA, BEGIN MULTI-TERMINAL DC DATA
0 / END OF MULTI-TERMINAL DC DATA, BEGIN MULTI-SECTION LINE DATA
0 / END OF MULTI-SECTION LINE DATA, BEGIN ZONE DATA
   1,'1       '
0 / END OF ZONE DATA, BEGIN INTER-AREA TRANSFER DATA
0 / END OF INTER-AREA TRANSFER DATA, BEGIN OWNER DATA
    1,'1'
0 / END OF OWNER DATA, BEGIN FACTS CONTROL DEVICE DATA
0 / END OF FACTS CONTROL DEVICE DATA, BEGIN SWITCHED SHUNT DATA
   10,0,0,1,1.06000,0.94000,    0,100.0,'        ',   19.00, 1,  19.00
   24,0,0,1,1.06000,0.94000,    0,100.0,'        ',    4.30, 1,   4.30
0 /END OF SWITCHED SHUNT DATA, BEGIN GNE DEVICE DATA
0 /END OF GNE DEVICE DATA
Q
